  
       XFOIL         Version 6.96
  
 Calculated polar for: XfoilAnalysis                                   
  
 1 1 Reynolds number fixed          Mach number fixed         
  
 xtrf =   1.000 (top)        1.000 (bottom)  
 Mach =   0.160     Re =     4.170 e 6     Ncrit =   9.000
  
   alpha    CL        CD       CDp       CM     Top_Xtr  Bot_Xtr
  ------ -------- --------- --------- -------- -------- --------
  -1.000  -0.4204   0.00545   0.00126   0.0860   0.4061   0.5584
  -2.000  -0.5106   0.00558   0.00144   0.0812   0.4392   0.5365
  -3.000  -0.5996   0.00581   0.00168   0.0762   0.4707   0.5115
  -4.000  -0.6781   0.00621   0.00205   0.0693   0.4998   0.4778
  -5.000  -0.7468   0.00680   0.00258   0.0606   0.5335   0.4340
  -6.000  -0.8074   0.00764   0.00332   0.0508   0.5632   0.3867
  -7.000  -0.8564   0.00880   0.00436   0.0393   0.6006   0.3307
  -8.000  -0.8874   0.01058   0.00597   0.0254   0.6389   0.2667
  -9.000  -0.9104   0.01292   0.00814   0.0115   0.6842   0.1987
 -10.000  -0.9350   0.01561   0.01076  -0.0010   0.7463   0.1436
   0.000  -0.3229   0.00539   0.00117   0.0893   0.3766   0.5792
   1.000  -0.2251   0.00543   0.00117   0.0926   0.3447   0.5991
   2.000  -0.1355   0.00558   0.00127   0.0976   0.3129   0.6183
   3.000  -0.0359   0.00578   0.00140   0.1005   0.2789   0.6366
   4.000   0.0675   0.00602   0.00159   0.1025   0.2466   0.6539
   5.000   0.1699   0.00635   0.00184   0.1046   0.2126   0.6711
   6.000   0.2697   0.00673   0.00216   0.1072   0.1808   0.6917
   7.000   0.3670   0.00719   0.00257   0.1102   0.1516   0.7114
   8.000   0.4597   0.00772   0.00306   0.1140   0.1259   0.7305
   9.000   0.5442   0.00834   0.00364   0.1192   0.1045   0.7499
  10.000   0.6046   0.00893   0.00425   0.1291   0.0887   0.7710
  11.000   0.6490   0.00979   0.00516   0.1412   0.0763   0.7949
  12.000   0.6962   0.01106   0.00652   0.1510   0.0659   0.8214
  14.000   0.9470   0.01572   0.01131   0.1338   0.0462   0.8653
  15.000   1.0044   0.01947   0.01524   0.1345   0.0404   0.8985
  16.000   1.0457   0.02432   0.02035   0.1353   0.0365   0.9414
  17.000   1.0788   0.03088   0.02710   0.1340   0.0332   0.9713
  18.000   1.0807   0.03922   0.03560   0.1348   0.0307   0.9883
  19.000   1.1009   0.04992   0.04646   0.1270   0.0278   0.9921
  20.000   1.1062   0.06246   0.05919   0.1184   0.0259   0.9947
