  
       XFOIL         Version 6.96
  
 Calculated polar for: XfoilAnalysis                                   
  
 1 1 Reynolds number fixed          Mach number fixed         
  
 xtrf =   1.000 (top)        1.000 (bottom)  
 Mach =   0.160     Re =     4.170 e 6     Ncrit =   9.000
  
   alpha    CL        CD       CDp       CM     Top_Xtr  Bot_Xtr
  ------ -------- --------- --------- -------- -------- --------
  -1.000   0.0704   0.00440   0.00057  -0.0423   0.8032   0.3029
  -2.000  -0.0240   0.00498   0.00073  -0.0456   0.8275   0.1455
  -3.000  -0.1207   0.00550   0.00100  -0.0485   0.8519   0.0543
  -4.000  -0.2190   0.00602   0.00144  -0.0511   0.8744   0.0142
  -5.000  -0.3175   0.00661   0.00206  -0.0538   0.8954   0.0048
  -6.000  -0.4174   0.00712   0.00264  -0.0560   0.9151   0.0043
  -7.000  -0.5168   0.00777   0.00338  -0.0585   0.9344   0.0036
  -8.000  -0.6167   0.00876   0.00449  -0.0607   0.9524   0.0022
  -9.000  -0.7168   0.01043   0.00644  -0.0627   0.9672   0.0021
 -10.000  -0.8124   0.01754   0.01469  -0.0630   0.9729   0.0020
