  
       XFOIL         Version 6.96
  
 Calculated polar for: XfoilAnalysis                                   
  
 1 1 Reynolds number fixed          Mach number fixed         
  
 xtrf =   1.000 (top)        1.000 (bottom)  
 Mach =   0.160     Re =     4.170 e 6     Ncrit =   9.000
  
   alpha    CL        CD       CDp       CM     Top_Xtr  Bot_Xtr
  ------ -------- --------- --------- -------- -------- --------
  -1.000  -0.1213   0.00656   0.00117   0.0032   0.3132   0.2141
  -2.000  -0.2421   0.00666   0.00128   0.0027   0.3452   0.1911
  -3.000  -0.3627   0.00682   0.00146   0.0021   0.3790   0.1700
  -4.000  -0.4829   0.00706   0.00172   0.0014   0.4146   0.1512
  -5.000  -0.6027   0.00736   0.00205   0.0007   0.4530   0.1342
  -6.000  -0.7217   0.00774   0.00246  -0.0002   0.4939   0.1189
  -7.000  -0.8399   0.00821   0.00297  -0.0012   0.5381   0.1051
  -8.000  -0.9572   0.00871   0.00355  -0.0024   0.5875   0.0942
  -9.000  -1.0730   0.00932   0.00425  -0.0038   0.6463   0.0840
 -10.000  -1.1868   0.01002   0.00507  -0.0055   0.7206   0.0749
   0.000  -0.0003   0.00653   0.00113   0.0037   0.2830   0.2390
   1.000   0.1205   0.00655   0.00116   0.0042   0.2542   0.2687
   3.000   0.3619   0.00678   0.00142   0.0052   0.2029   0.3361
   4.000   0.4821   0.00699   0.00166   0.0058   0.1804   0.3766
   5.000   0.6017   0.00727   0.00198   0.0064   0.1594   0.4227
   6.000   0.7205   0.00762   0.00239   0.0071   0.1403   0.4792
   7.000   0.8382   0.00802   0.00290   0.0080   0.1233   0.5516
   8.000   0.9543   0.00846   0.00351   0.0090   0.1080   0.6577
   9.000   1.0621   0.00852   0.00427   0.0118   0.0953   0.9667
  10.000   1.1876   0.00942   0.00510   0.0108   0.0833   1.0000
  11.000   1.2967   0.01046   0.00607   0.0129   0.0731   1.0000
  12.000   1.4033   0.01156   0.00714   0.0152   0.0653   1.0000
  13.000   1.5038   0.01290   0.00846   0.0183   0.0583   1.0000
  14.000   1.5955   0.01444   0.01000   0.0224   0.0524   1.0000
  15.000   1.6680   0.01630   0.01191   0.0287   0.0478   1.0000
  16.000   1.6798   0.01990   0.01566   0.0394   0.0446   1.0000
  18.000   1.7277   0.03900   0.03517   0.0308   0.0390   1.0000
  19.000   1.6762   0.05580   0.05228   0.0246   0.0374   1.0000
  20.000   1.5923   0.07795   0.07476   0.0148   0.0355   1.0000
