  
       XFOIL         Version 6.96
  
 Calculated polar for: XfoilAnalysis                                   
  
 1 1 Reynolds number fixed          Mach number fixed         
  
 xtrf =   1.000 (top)        1.000 (bottom)  
 Mach =   0.160     Re =     4.170 e 6     Ncrit =   9.000
  
   alpha    CL        CD       CDp       CM     Top_Xtr  Bot_Xtr
  ------ -------- --------- --------- -------- -------- --------
  -1.000  -0.2935   0.00440   0.00080   0.0451   0.5806   0.6017
  -2.000  -0.3863   0.00433   0.00088   0.0408   0.6768   0.5613
  -3.000  -0.4634   0.00458   0.00109   0.0332   0.7665   0.4799
  -5.000  -0.5621   0.00588   0.00211   0.0061   0.9331   0.2692
  -6.000  -0.6978   0.00795   0.00350   0.0137   0.9635   0.0973
  -7.000  -0.8053   0.00929   0.00458   0.0141   0.9783   0.0471
  -8.000  -0.9014   0.01047   0.00566   0.0121   0.9906   0.0305
  -9.000  -1.0120   0.01176   0.00688   0.0136   0.9955   0.0213
 -10.000  -1.1162   0.01321   0.00830   0.0141   0.9985   0.0162
   1.000  -0.0967   0.00486   0.00083   0.0509   0.3871   0.6560
   2.000   0.0027   0.00517   0.00094   0.0536   0.3000   0.6813
   3.000   0.1017   0.00556   0.00112   0.0564   0.2214   0.7055
   4.000   0.1999   0.00600   0.00140   0.0593   0.1550   0.7291
   5.000   0.2968   0.00649   0.00176   0.0625   0.1041   0.7530
   6.000   0.3922   0.00701   0.00219   0.0660   0.0693   0.7765
   7.000   0.4850   0.00755   0.00270   0.0700   0.0476   0.8004
   8.000   0.5733   0.00814   0.00330   0.0749   0.0334   0.8248
   9.000   0.6476   0.00870   0.00392   0.0828   0.0257   0.8533
  10.000   0.7139   0.00935   0.00469   0.0922   0.0208   0.8875
  11.000   0.7784   0.01011   0.00563   0.1015   0.0171   0.9325
  12.000   0.9277   0.01170   0.00728   0.0918   0.0123   0.9504
  14.000   1.1331   0.01559   0.01135   0.0902   0.0071   0.9819
  15.000   1.2102   0.01815   0.01405   0.0926   0.0064   0.9940
  16.000   1.2798   0.02194   0.01801   0.0932   0.0057   0.9974
  17.000   1.3263   0.02786   0.02419   0.0928   0.0052   0.9994
  18.000   1.3259   0.03700   0.03364   0.0933   0.0050   1.0000
  19.000   1.2770   0.05235   0.04937   0.0898   0.0049   1.0000
  20.000   1.1813   0.07676   0.07421   0.0783   0.0049   1.0000
