  
       XFOIL         Version 6.96
  
 Calculated polar for: XfoilAnalysis                                   
  
 1 1 Reynolds number fixed          Mach number fixed         
  
 xtrf =   1.000 (top)        1.000 (bottom)  
 Mach =   0.160     Re =     4.170 e 6     Ncrit =   9.000
  
   alpha    CL        CD       CDp       CM     Top_Xtr  Bot_Xtr
  ------ -------- --------- --------- -------- -------- --------
  -1.000  -0.1314   0.00807   0.00204  -0.0053   0.2063   0.2128
  -2.000  -0.2358   0.00813   0.00212  -0.0094   0.2236   0.1982
  -3.000  -0.3390   0.00828   0.00227  -0.0137   0.2425   0.1838
  -4.000  -0.4410   0.00844   0.00246  -0.0182   0.2642   0.1717
  -5.000  -0.5409   0.00862   0.00270  -0.0231   0.2910   0.1613
  -6.000  -0.6376   0.00886   0.00299  -0.0285   0.3221   0.1516
  -7.000  -0.7291   0.00911   0.00334  -0.0348   0.3651   0.1426
  -8.000  -0.8029   0.00934   0.00370  -0.0446   0.4272   0.1347
   0.000  -0.0260   0.00803   0.00201  -0.0014   0.1913   0.2286
   1.000   0.0790   0.00802   0.00201   0.0026   0.1788   0.2483
   2.000   0.1841   0.00808   0.00208   0.0067   0.1666   0.2677
   3.000   0.2879   0.00817   0.00220   0.0109   0.1556   0.2913
   4.000   0.3905   0.00829   0.00237   0.0154   0.1461   0.3184
   5.000   0.4858   0.00842   0.00256   0.0214   0.1375   0.3493
   6.000   0.5778   0.00859   0.00281   0.0280   0.1299   0.3846
   7.000   0.6713   0.00884   0.00316   0.0341   0.1232   0.4295
   8.000   0.7625   0.00911   0.00359   0.0406   0.1168   0.4919
   9.000   0.8473   0.00937   0.00411   0.0482   0.1108   0.5951
  10.000   0.9086   0.00913   0.00479   0.0602   0.1050   0.9190
  11.000   1.1660   0.01042   0.00606   0.0329   0.0975   0.9715
  12.000   1.2590   0.01139   0.00704   0.0384   0.0931   0.9873
  13.000   1.3859   0.01242   0.00805   0.0370   0.0886   0.9930
  14.000   1.5066   0.01364   0.00926   0.0364   0.0842   0.9971
  15.000   1.6274   0.01510   0.01072   0.0352   0.0795   1.0000
  16.000   1.6750   0.01649   0.01220   0.0468   0.0774   1.0000
  17.000   1.7091   0.01870   0.01449   0.0586   0.0741   1.0000
  18.000   1.7433   0.02161   0.01754   0.0680   0.0721   1.0000
  19.000   1.7541   0.02687   0.02297   0.0753   0.0698   1.0000
  20.000   1.7127   0.04001   0.03643   0.0739   0.0675   1.0000
