  
       XFOIL         Version 6.96
  
 Calculated polar for: XfoilAnalysis                                   
  
 1 1 Reynolds number fixed          Mach number fixed         
  
 xtrf =   1.000 (top)        1.000 (bottom)  
 Mach =   0.160     Re =     4.170 e 6     Ncrit =   9.000
  
   alpha    CL        CD       CDp       CM     Top_Xtr  Bot_Xtr
  ------ -------- --------- --------- -------- -------- --------
  -1.000  -0.1968   0.00729   0.00200   0.0187   0.3126   0.3377
  -2.000  -0.2937   0.00737   0.00207   0.0142   0.3380   0.3141
  -3.000  -0.3781   0.00745   0.00217   0.0073   0.3683   0.2909
  -4.000  -0.4544   0.00761   0.00235  -0.0011   0.3995   0.2697
  -5.000  -0.5328   0.00791   0.00269  -0.0089   0.4350   0.2495
  -6.000  -0.6055   0.00833   0.00315  -0.0175   0.4746   0.2302
  -7.000  -0.6762   0.00882   0.00370  -0.0261   0.5194   0.2130
  -8.000  -0.7420   0.00942   0.00440  -0.0352   0.5747   0.1966
  -9.000  -0.8033   0.01021   0.00535  -0.0443   0.6461   0.1814
 -10.000  -0.8728   0.01114   0.00655  -0.0512   0.7538   0.1676
   0.000  -0.0978   0.00723   0.00196   0.0227   0.2883   0.3656
   1.000   0.0037   0.00727   0.00198   0.0262   0.2642   0.3917
   2.000   0.1052   0.00730   0.00204   0.0297   0.2445   0.4212
   3.000   0.2061   0.00739   0.00216   0.0334   0.2252   0.4513
   4.000   0.3058   0.00755   0.00233   0.0372   0.2079   0.4803
   5.000   0.4010   0.00773   0.00255   0.0419   0.1918   0.5144
   6.000   0.4898   0.00794   0.00281   0.0479   0.1785   0.5462
   7.000   0.5611   0.00820   0.00312   0.0572   0.1660   0.5808
   8.000   0.6353   0.00863   0.00362   0.0655   0.1537   0.6175
   9.000   0.7066   0.00914   0.00421   0.0741   0.1436   0.6567
  10.000   0.7744   0.00976   0.00494   0.0828   0.1344   0.6995
  11.000   0.8366   0.01055   0.00587   0.0917   0.1258   0.7513
  12.000   0.9084   0.01160   0.00711   0.0978   0.1177   0.8148
  13.000   1.1219   0.01329   0.00890   0.0759   0.1058   0.8701
  15.000   1.2951   0.01832   0.01425   0.0763   0.0921   0.9953
  16.000   1.3816   0.02234   0.01831   0.0729   0.0861   0.9983
  17.000   1.4490   0.02777   0.02382   0.0697   0.0811   1.0000
  18.000   1.4526   0.03505   0.03124   0.0730   0.0774   1.0000
  19.000   1.4330   0.04532   0.04168   0.0739   0.0731   1.0000
  20.000   1.4096   0.05712   0.05369   0.0723   0.0703   1.0000
